ELEMENTS
O  H  AR  C  N
END
SPECIES
H2      H       O       O2      OH      H2O     HO2     H2O2     AR
CH3     C2H5    C2H5O2  IC5H9OH1-1      IC4H9CHO        HCN      H2CN
CO      CO2     CH4     C2H4    C2H6
END
THERMO ALL
   300.000  1000.000  5000.000
O                 L 1/90O   1   00   00   00G   200.000  3500.000  1000.000    1
 2.56942078E+00-8.59741137E-05 4.19484589E-08-1.00177799E-11 1.22833691E-15    2
 2.92175791E+04 4.78433864E+00 3.16826710E+00-3.27931884E-03 6.64306396E-06    3
-6.12806624E-09 2.11265971E-12 2.91222592E+04 2.05193346E+00                   4
O2                TPIS89O   2   00   00   00G   200.000  3500.000  1000.000    1
 3.28253784E+00 1.48308754E-03-7.57966669E-07 2.09470555E-10-2.16717794E-14    2
-1.08845772E+03 5.45323129E+00 3.78245636E+00-2.99673416E-03 9.84730201E-06    3
-9.68129509E-09 3.24372837E-12-1.06394356E+03 3.65767573E+00                   4
H                 L 7/88H   1   00   00   00G   200.000  3500.000  1000.000    1
 2.50000001E+00-2.30842973E-11 1.61561948E-14-4.73515235E-18 4.98197357E-22    2
 2.54736599E+04-4.46682914E-01 2.50000000E+00 7.05332819E-13-1.99591964E-15    3
 2.30081632E-18-9.27732332E-22 2.54736599E+04-4.46682853E-01                   4
H2                TPIS78H   2   00   00   00G   200.000  3500.000  1000.000    1
 3.33727920E+00-4.94024731E-05 4.99456778E-07-1.79566394E-10 2.00255376E-14    2
-9.50158922E+02-3.20502331E+00 2.34433112E+00 7.98052075E-03-1.94781510E-05    3
 2.01572094E-08-7.37611761E-12-9.17935173E+02 6.83010238E-01                   4
OH                RUS 78O   1H   1   00   00G   200.000  3500.000  1000.000    1
 3.09288767E+00 5.48429716E-04 1.26505228E-07-8.79461556E-11 1.17412376E-14    2
 3.85865700E+03 4.47669610E+00 3.99201543E+00-2.40131752E-03 4.61793841E-06    3
-3.88113333E-09 1.36411470E-12 3.61508056E+03-1.03925458E-01                   4
H2O               L 8/89H   2O   1   00   00G   200.000  3500.000  1000.000    1
 3.03399249E+00 2.17691804E-03-1.64072518E-07-9.70419870E-11 1.68200992E-14    2
-3.00042971E+04 4.96677010E+00 4.19864056E+00-2.03643410E-03 6.52040211E-06    3
-5.48797062E-09 1.77197817E-12-3.02937267E+04-8.49032208E-01                   4
HO2               L 5/89H   1O   2   00   00G   200.000  3500.000  1000.000    1
 4.01721090E+00 2.23982013E-03-6.33658150E-07 1.14246370E-10-1.07908535E-14    2
 1.11856713E+02 3.78510215E+00 4.30179801E+00-4.74912051E-03 2.11582891E-05    3
-2.42763894E-08 9.29225124E-12 2.94808040E+02 3.71666245E+00                   4
H2O2              L 7/88H   2O   2   00   00G   200.000  3500.000  1000.000    1
 4.16500285E+00 4.90831694E-03-1.90139225E-06 3.71185986E-10-2.87908305E-14    2
-1.78617877E+04 2.91615662E+00 4.27611269E+00-5.42822417E-04 1.67335701E-05    3
-2.15770813E-08 8.62454363E-12-1.77025821E+04 3.43505074E+00                   4
AR                120186AR  1               G   300.000  5000.000  1000.000    1
 0.02500000E+02 0.00000000E+00 0.00000000E+00 0.00000000E+00 0.00000000E+00    2
-0.07453750E+04 0.04366000E+02 0.02500000E+02 0.00000000E+00 0.00000000E+00    3
 0.00000000E+00 0.00000000E+00-0.07453750E+04 0.04366000E+02                   4
CH3               iu0702c  1 h  3    0    0 g   200.000  6000.00  1000.00      1
 0.29781206e+01 0.57978520e-02-0.19755800e-05 0.30729790e-09-0.17917416e-13    2
 0.16509513e+05 0.47224799e+01 0.36571797e+01 0.21265979e-02 0.54583883e-05    3
-0.66181003e-08 0.24657074e-11 0.16422716e+05 0.16735354e+01 0.17643935e+05    4
C2H5       8/ 4/ 4 thermc   2h   5    0    0g   300.000  5000.000 1387.000    11
 5.88784390e+00 1.03076793e-02-3.46844396e-06 5.32499257e-10-3.06512651e-14    2
 1.15065499e+04-8.49651771e+00 1.32730217e+00 1.76656753e-02-6.14926558e-06    3
-3.01143466e-10 4.38617775e-13 1.34284028e+04 1.71789216e+01                   4
C2H5O2            t10/10c  2 h  5 o  2    0 g   200.000  6000.00  1000.00      1
 8.88872432e+00 1.35833179e-02-4.91116949e-06 7.92343362e-10-4.73525704e-14    2
-7.44107388e+03-1.90789836e+01 4.50099327e+00 6.87965342e-03 4.74143971e-05    3
-6.92287127e-08 2.87395324e-11-5.39547911e+03 7.91490068e+00-3.45206633e+03    4
IC5H9OH1-1 8/24/12 thermc   5h  10o   1    0g   300.000  5000.000 1401.000    41
 1.72230301e+01 2.22593435e-02-7.57391529e-06 1.17156666e-09-6.77917454e-14    2
-3.31186152e+04-6.50020716e+01-1.94022087e+00 7.14827733e-02-5.72564918e-05    3
 2.43814756e-08-4.24851023e-12-2.68798428e+04 3.63828341e+01                   4
IC4H9CHO   8/24/12 thermc   5h  10o   1    0g   300.000  5000.000 1383.000    41
 1.70194059e+01 2.23541546e-02-7.59760895e-06 1.17496754e-09-6.79975164e-14    2
-3.69143302e+04-6.35871575e+01 8.61033163e-01 5.73441683e-02-3.59178644e-05    3
 1.13951893e-08-1.46205706e-12-3.09951354e+04 2.42264151e+01                   4
HCN               GRI/98H   1C   1N   1     G   200.000  6000.000  1000.000    1
 0.38022392E+01 0.31464228E-02-0.10632185E-05 0.16619757E-09-0.97997570E-14    2
 0.14407292E+05 0.15754601E+01 0.22589886E+01 0.10051170E-01-0.13351763E-04    3
 0.10092349E-07-0.30089028E-11 0.14712633E+05 0.89164419E+01                   4
H2CN               41687H   2C   1N   1     G   300.00   4000.000  1000.000    1
 0.52097030E+01 0.29692911E-02-0.28555891E-06-0.16355500E-09 0.30432589E-13    2
 0.27677109E+05-0.44444780E+01 0.28516610E+01 0.56952331E-02 0.10711400E-05    3
-0.16226120E-08-0.23511081E-12 0.28637820E+05 0.89927511E+01                   4
CO                TPIS79C   1O   1          G   200.000  3500.000  1000.000    1
 2.71518561E+00 2.06252743E-03-9.98825771E-07 2.30053008E-10-2.03647716E-14    2
-1.41518724E+04 7.81868772E+00 3.57953347E+00-6.10353680E-04 1.01681433E-06    3
 9.07005884E-10-9.04424499E-13-1.43440860E+04 3.50840928E+00                   4
CO2               L 7/88C   1O   2          G   200.000  3500.000  1000.000    1
 3.85746029E+00 4.41437026E-03-2.21481404E-06 5.23490188E-10-4.72084164E-14    2
-4.87591660E+04 2.27163806E+00 2.35677352E+00 8.98459677E-03-7.12356269E-06    3
 2.45919022E-09-1.43699548E-13-4.83719697E+04 9.90105222E+00                   4
CH4               L 8/88C   1H   4          G   200.000  3500.000  1000.000    1
 7.48514950E-02 1.33909467E-02-5.73285809E-06 1.22292535E-09-1.01815230E-13    2
-9.46834459E+03 1.84373180E+01 5.14987613E+00-1.36709788E-02 4.91800599E-05    3
-4.84743026E-08 1.66693956E-11-1.02466476E+04-4.64130376E+00                   4
C2H4              L 1/91C   2H   4          G   200.000  3500.000  1000.000    1
 2.03611116E+00 1.46454151E-02-6.71077915E-06 1.47222923E-09-1.25706061E-13    2
 4.93988614E+03 1.03053693E+01 3.95920148E+00-7.57052247E-03 5.70990292E-05    3
-6.91588753E-08 2.69884373E-11 5.08977593E+03 4.09733096E+00                   4
C2H6              L 8/88C   2H   6          G   200.000  3500.000  1000.000    1
 1.07188150E+00 2.16852677E-02-1.00256067E-05 2.21412001E-09-1.90002890E-13    2
-1.14263932E+04 1.51156107E+01 4.29142492E+00-5.50154270E-03 5.99438288E-05    3
-7.08466285E-08 2.68685771E-11-1.15222055E+04 2.66682316E+00                   4
END
REACTIONS
!elementary fwd only
2O+M=>O2+M                               1.200E+17   -1.000        .00
!elementary both ways
O+H2<=>H+OH                              3.870E+04    2.700    6260.00
!third body mix
O+H+M<=>OH+M                             5.000E+17   -1.000        .00
H2/2.00/ H2O/6.00/ AR/ .70/
!falloff single
H+O2+(+AR)<=>HO2+(+AR)                   2.800E+18    -.860        .00
     LOW  /  2.300E+18    -.900  -1700.00/
     TROE/   .7346   94.00  1756.00  5182.00 /
!falloff unity
H+H+(+M)<=>H2+(+M)                   2.800E+18    -.860        .00
     LOW  /  2.300E+18    -.900  -1700.00/
     TROE/   .7346   94.00  1756.00  5182.00 /
!troe
2OH(+M)<=>H2O2(+M)                       7.400E+13    -.370        .00
     LOW  /  2.300E+18    -.900  -1700.00/
     TROE/   .7346   94.00  1756.00  5182.00 /
H2/2.00/ H2O/6.00/ AR/ .70/
!sri
CH3+CH3(+m)<=>C2H5+H(+m) 4.989e12 0.099 1.06e4
high/ 3.802e-7 4.838 7.710e3/ 
sri/ 1.641 4334 2725/
!plog
C2H5+O2<=>C2H5O2 3.398e+53 -13.90 9.279e+03
PLOG/ 0.04 3.398e+53 -13.90 9.279e+03/ 
PLOG/ 1.00 9.362e+59 -15.28 1.424e+04/ 
PLOG/ 10.00 1.262e+60 -14.91 1.624e+04/
!lindeman
H+HCN(+M)<=>H2CN(+M)                     3.300E+13     .000        .00
      LOW /  1.400E+26   -3.400    1900.00/
H2/2.00/ H2O/6.00/ CH4/2.00/ CO/1.50/ CO2/2.00/ C2H6/3.00/ AR/ .70/
!cheb
IC5H9OH1-1+H(+m)=IC4H9CHO+H(+m) 1.0e0 0.0 0.0   !
tcheb / 290.0 3000.0 /  pcheb / 0.009869232667160128 98.69232667160128 /
cheb / 5    3 /
cheb / 1.1686000e+01 -8.9255000e-01 -1.8968000e-01 /
cheb / 1.0258000e+00 8.8111000e-01 1.1329000e-01 /
cheb / -1.0827000e-01 1.5423000e-01 1.0637000e-01 /
cheb / -1.1460000e-01 -6.6920000e-02 1.3608000e-02 /
cheb / -4.7884000e-02 -6.4850000e-02 -2.4835000e-02 /
END
