units(length='cm', time='s', quantity='mol', act_energy='cal/mol')

ideal_gas(name='gas',
          elements="O H Ar C N",
          species="""H2          H           O           O2
                     OH          H2O         HO2         H2O2
                     AR          CH3         C2H5        C2H5O2
                     IC5H9OH1-1  IC4H9CHO    HCN         H2CN
                     CO          CO2         CH4         C2H4
                     C2H6        c2h3oh      hocho       ch3cho
                     ch2cho      ho2ch2co    C8H6        C2H
                     C6H5        C4H2        N2""",
          reactions='all',
          initial_state=state(temperature=300.0, pressure=OneAtm))

#-------------------------------------------------------------------------------
# Species data
#-------------------------------------------------------------------------------

species(name=u'H2',
        atoms='H:2',
        thermo=(NASA([200.00, 1000.00],
                     [ 2.34433112E+00,  7.98052075E-03, -1.94781510E-05,
                       2.01572094E-08, -7.37611761E-12, -9.17935173E+02,
                       6.83010238E-01]),
                NASA([1000.00, 3500.00],
                     [ 3.33727920E+00, -4.94024731E-05,  4.99456778E-07,
                      -1.79566394E-10,  2.00255376E-14, -9.50158922E+02,
                      -3.20502331E+00])),
        note=u'TPIS78')

species(name=u'H',
        atoms='H:1',
        thermo=(NASA([200.00, 1000.00],
                     [ 2.50000000E+00,  7.05332819E-13, -1.99591964E-15,
                       2.30081632E-18, -9.27732332E-22,  2.54736599E+04,
                      -4.46682853E-01]),
                NASA([1000.00, 3500.00],
                     [ 2.50000001E+00, -2.30842973E-11,  1.61561948E-14,
                      -4.73515235E-18,  4.98197357E-22,  2.54736599E+04,
                      -4.46682914E-01])),
        note=u'L7/88')

species(name=u'O',
        atoms='O:1',
        thermo=(NASA([200.00, 1000.00],
                     [ 3.16826710E+00, -3.27931884E-03,  6.64306396E-06,
                      -6.12806624E-09,  2.11265971E-12,  2.91222592E+04,
                       2.05193346E+00]),
                NASA([1000.00, 3500.00],
                     [ 2.56942078E+00, -8.59741137E-05,  4.19484589E-08,
                      -1.00177799E-11,  1.22833691E-15,  2.92175791E+04,
                       4.78433864E+00])),
        note=u'L1/90')

species(name=u'O2',
        atoms='O:2',
        thermo=(NASA([200.00, 1000.00],
                     [ 3.78245636E+00, -2.99673416E-03,  9.84730201E-06,
                      -9.68129509E-09,  3.24372837E-12, -1.06394356E+03,
                       3.65767573E+00]),
                NASA([1000.00, 3500.00],
                     [ 3.28253784E+00,  1.48308754E-03, -7.57966669E-07,
                       2.09470555E-10, -2.16717794E-14, -1.08845772E+03,
                       5.45323129E+00])),
        note=u'TPIS89')

species(name=u'OH',
        atoms='H:1 O:1',
        thermo=(NASA([200.00, 1000.00],
                     [ 3.99201543E+00, -2.40131752E-03,  4.61793841E-06,
                      -3.88113333E-09,  1.36411470E-12,  3.61508056E+03,
                      -1.03925458E-01]),
                NASA([1000.00, 3500.00],
                     [ 3.09288767E+00,  5.48429716E-04,  1.26505228E-07,
                      -8.79461556E-11,  1.17412376E-14,  3.85865700E+03,
                       4.47669610E+00])),
        note=u'RUS78')

species(name=u'H2O',
        atoms='H:2 O:1',
        thermo=(NASA([200.00, 1000.00],
                     [ 4.19864056E+00, -2.03643410E-03,  6.52040211E-06,
                      -5.48797062E-09,  1.77197817E-12, -3.02937267E+04,
                      -8.49032208E-01]),
                NASA([1000.00, 3500.00],
                     [ 3.03399249E+00,  2.17691804E-03, -1.64072518E-07,
                      -9.70419870E-11,  1.68200992E-14, -3.00042971E+04,
                       4.96677010E+00])),
        note=u'L8/89')

species(name=u'HO2',
        atoms='H:1 O:2',
        thermo=(NASA([200.00, 1000.00],
                     [ 4.30179801E+00, -4.74912051E-03,  2.11582891E-05,
                      -2.42763894E-08,  9.29225124E-12,  2.94808040E+02,
                       3.71666245E+00]),
                NASA([1000.00, 3500.00],
                     [ 4.01721090E+00,  2.23982013E-03, -6.33658150E-07,
                       1.14246370E-10, -1.07908535E-14,  1.11856713E+02,
                       3.78510215E+00])),
        note=u'L5/89')

species(name=u'H2O2',
        atoms='H:2 O:2',
        thermo=(NASA([200.00, 1000.00],
                     [ 4.27611269E+00, -5.42822417E-04,  1.67335701E-05,
                      -2.15770813E-08,  8.62454363E-12, -1.77025821E+04,
                       3.43505074E+00]),
                NASA([1000.00, 3500.00],
                     [ 4.16500285E+00,  4.90831694E-03, -1.90139225E-06,
                       3.71185986E-10, -2.87908305E-14, -1.78617877E+04,
                       2.91615662E+00])),
        note=u'L7/88')

species(name=u'AR',
        atoms='Ar:1',
        thermo=(NASA([300.00, 1000.00],
                     [ 2.50000000E+00,  0.00000000E+00,  0.00000000E+00,
                       0.00000000E+00,  0.00000000E+00, -7.45375000E+02,
                       4.36600000E+00]),
                NASA([1000.00, 5000.00],
                     [ 2.50000000E+00,  0.00000000E+00,  0.00000000E+00,
                       0.00000000E+00,  0.00000000E+00, -7.45375000E+02,
                       4.36600000E+00])),
        note=u'120186')

species(name=u'CH3',
        atoms='H:3 C:1',
        thermo=(NASA([200.00, 1000.00],
                     [ 3.65717970E+00,  2.12659790E-03,  5.45838830E-06,
                      -6.61810030E-09,  2.46570740E-12,  1.64227160E+04,
                       1.67353540E+00]),
                NASA([1000.00, 6000.00],
                     [ 2.97812060E+00,  5.79785200E-03, -1.97558000E-06,
                       3.07297900E-10, -1.79174160E-14,  1.65095130E+04,
                       4.72247990E+00])),
        note=u'iu0702')

species(name=u'C2H5',
        atoms='H:5 C:2',
        thermo=(NASA([300.00, 1387.00],
                     [ 1.32730217E+00,  1.76656753E-02, -6.14926558E-06,
                      -3.01143466E-10,  4.38617775E-13,  1.34284028E+04,
                       1.71789216E+01]),
                NASA([1387.00, 5000.00],
                     [ 5.88784390E+00,  1.03076793E-02, -3.46844396E-06,
                       5.32499257E-10, -3.06512651E-14,  1.15065499E+04,
                      -8.49651771E+00])),
        note=u'8/4/4therm')

species(name=u'C2H5O2',
        atoms='H:5 C:2 O:2',
        thermo=(NASA([200.00, 1000.00],
                     [ 4.50099327E+00,  6.87965342E-03,  4.74143971E-05,
                      -6.92287127E-08,  2.87395324E-11, -5.39547911E+03,
                       7.91490068E+00]),
                NASA([1000.00, 6000.00],
                     [ 8.88872432E+00,  1.35833179E-02, -4.91116949E-06,
                       7.92343362E-10, -4.73525704E-14, -7.44107388E+03,
                      -1.90789836E+01])),
        note=u't10/10')

species(name=u'IC5H9OH1-1',
        atoms='H:10 C:5 O:1',
        thermo=(NASA([300.00, 1401.00],
                     [-1.94022087E+00,  7.14827733E-02, -5.72564918E-05,
                       2.43814756E-08, -4.24851023E-12, -2.68798428E+04,
                       3.63828341E+01]),
                NASA([1401.00, 5000.00],
                     [ 1.72230301E+01,  2.22593435E-02, -7.57391529E-06,
                       1.17156666E-09, -6.77917454E-14, -3.31186152E+04,
                      -6.50020716E+01])),
        note=u'8/24/12therm')

species(name=u'IC4H9CHO',
        atoms='H:10 C:5 O:1',
        thermo=(NASA([300.00, 1383.00],
                     [ 8.61033163E-01,  5.73441683E-02, -3.59178644E-05,
                       1.13951893E-08, -1.46205706E-12, -3.09951354E+04,
                       2.42264151E+01]),
                NASA([1383.00, 5000.00],
                     [ 1.70194059E+01,  2.23541546E-02, -7.59760895E-06,
                       1.17496754E-09, -6.79975164E-14, -3.69143302E+04,
                      -6.35871575E+01])),
        note=u'8/24/12therm')

species(name=u'HCN',
        atoms='H:1 C:1 N:1',
        thermo=(NASA([200.00, 1000.00],
                     [ 2.25898860E+00,  1.00511700E-02, -1.33517630E-05,
                       1.00923490E-08, -3.00890280E-12,  1.47126330E+04,
                       8.91644190E+00]),
                NASA([1000.00, 6000.00],
                     [ 3.80223920E+00,  3.14642280E-03, -1.06321850E-06,
                       1.66197570E-10, -9.79975700E-15,  1.44072920E+04,
                       1.57546010E+00])),
        note=u'GRI/98')

species(name=u'H2CN',
        atoms='H:2 C:1 N:1',
        thermo=(NASA([300.00, 1000.00],
                     [ 2.85166100E+00,  5.69523310E-03,  1.07114000E-06,
                      -1.62261200E-09, -2.35110810E-13,  2.86378200E+04,
                       8.99275110E+00]),
                NASA([1000.00, 4000.00],
                     [ 5.20970300E+00,  2.96929110E-03, -2.85558910E-07,
                      -1.63555000E-10,  3.04325890E-14,  2.76771090E+04,
                      -4.44447800E+00])),
        note=u'41687')

species(name=u'CO',
        atoms='C:1 O:1',
        thermo=(NASA([200.00, 1000.00],
                     [ 3.57953347E+00, -6.10353680E-04,  1.01681433E-06,
                       9.07005884E-10, -9.04424499E-13, -1.43440860E+04,
                       3.50840928E+00]),
                NASA([1000.00, 3500.00],
                     [ 2.71518561E+00,  2.06252743E-03, -9.98825771E-07,
                       2.30053008E-10, -2.03647716E-14, -1.41518724E+04,
                       7.81868772E+00])),
        note=u'TPIS79')

species(name=u'CO2',
        atoms='C:1 O:2',
        thermo=(NASA([200.00, 1000.00],
                     [ 2.35677352E+00,  8.98459677E-03, -7.12356269E-06,
                       2.45919022E-09, -1.43699548E-13, -4.83719697E+04,
                       9.90105222E+00]),
                NASA([1000.00, 3500.00],
                     [ 3.85746029E+00,  4.41437026E-03, -2.21481404E-06,
                       5.23490188E-10, -4.72084164E-14, -4.87591660E+04,
                       2.27163806E+00])),
        note=u'L7/88')

species(name=u'CH4',
        atoms='H:4 C:1',
        thermo=(NASA([200.00, 1000.00],
                     [ 5.14987613E+00, -1.36709788E-02,  4.91800599E-05,
                      -4.84743026E-08,  1.66693956E-11, -1.02466476E+04,
                      -4.64130376E+00]),
                NASA([1000.00, 3500.00],
                     [ 7.48514950E-02,  1.33909467E-02, -5.73285809E-06,
                       1.22292535E-09, -1.01815230E-13, -9.46834459E+03,
                       1.84373180E+01])),
        note=u'L8/88')

species(name=u'C2H4',
        atoms='H:4 C:2',
        thermo=(NASA([200.00, 1000.00],
                     [ 3.95920148E+00, -7.57052247E-03,  5.70990292E-05,
                      -6.91588753E-08,  2.69884373E-11,  5.08977593E+03,
                       4.09733096E+00]),
                NASA([1000.00, 3500.00],
                     [ 2.03611116E+00,  1.46454151E-02, -6.71077915E-06,
                       1.47222923E-09, -1.25706061E-13,  4.93988614E+03,
                       1.03053693E+01])),
        note=u'L1/91')

species(name=u'C2H6',
        atoms='H:6 C:2',
        thermo=(NASA([200.00, 1000.00],
                     [ 4.29142492E+00, -5.50154270E-03,  5.99438288E-05,
                      -7.08466285E-08,  2.68685771E-11, -1.15222055E+04,
                       2.66682316E+00]),
                NASA([1000.00, 3500.00],
                     [ 1.07188150E+00,  2.16852677E-02, -1.00256067E-05,
                       2.21412001E-09, -1.90002890E-13, -1.14263932E+04,
                       1.51156107E+01])),
        note=u'L8/88')

species(name=u'c2h3oh',
        atoms='H:4 C:2 O:1',
        thermo=(NASA([300.00, 1410.00],
                     [-1.27972260E-01,  3.38506073E-02, -3.30644935E-05,
                       1.64858739E-08, -3.19935455E-12, -1.59914544E+04,
                       2.30438601E+01]),
                NASA([1410.00, 5000.00],
                     [ 8.32598158E+00,  8.03387281E-03, -2.63928405E-06,
                       3.98410726E-10, -2.26551155E-14, -1.83221436E+04,
                      -2.02080305E+01])),
        note=u'2/3/9therm')

species(name=u'hocho',
        atoms='H:2 C:1 O:2',
        thermo=(NASA([200.00, 1000.00],
                     [ 3.89836160E+00, -3.55877950E-03,  3.55205380E-05,
                      -4.38499590E-08,  1.71077690E-11, -4.67706090E+04,
                       7.34953970E+00]),
                NASA([1000.00, 6000.00],
                     [ 4.61383160E+00,  6.44963640E-03, -2.29082510E-06,
                       3.67160470E-10, -2.18736750E-14, -4.75148500E+04,
                       8.47883830E-01])),
        note=u'l8/88')

species(name=u'ch3cho',
        atoms='H:4 C:2 O:1',
        thermo=(NASA([200.00, 1000.00],
                     [ 4.72945950E+00, -3.19328580E-03,  4.75349210E-05,
                      -5.74586110E-08,  2.19311120E-11, -2.15728780E+04,
                       4.10301590E+00]),
                NASA([1000.00, 6000.00],
                     [ 5.40411080E+00,  1.17230590E-02, -4.22631370E-06,
                       6.83724510E-10, -4.09848630E-14, -2.25931220E+04,
                      -3.48079170E+00])),
        note=u'l8/88')

species(name=u'ch2cho',
        atoms='H:3 C:2 O:1',
        thermo=(NASA([200.00, 1000.00],
                     [ 2.79502600E+00,  1.01099472E-02,  1.61750645E-05,
                      -3.10303145E-08,  1.39436139E-11,  1.62944975E+02,
                       1.23646657E+01]),
                NASA([1000.00, 6000.00],
                     [ 6.53928338E+00,  7.80238629E-03, -2.76413612E-06,
                       4.42098906E-10, -2.62954290E-14, -1.18858659E+03,
                      -8.72091393E+00])),
        note=u't03/10')

species(name=u'ho2ch2co',
        atoms='H:3 C:2 O:3',
        thermo=(NASA([300.00, 1386.00],
                     [ 2.22681686E+00,  3.56781380E-02, -3.26401909E-05,
                       1.47651988E-08, -2.64794380E-12, -1.18735095E+04,
                       1.91581197E+01]),
                NASA([1386.00, 5000.00],
                     [ 1.04146322E+01,  1.12680116E-02, -5.17494839E-06,
                       1.00333285E-09, -6.68165911E-14, -1.40955672E+04,
                      -2.27894400E+01])),
        note=u'boz_03')

species(name=u'C8H6',
        atoms='H:6 C:8',
        thermo=(NASA([200.00, 1000.00],
                     [-2.74707918E+00,  7.78284438E-02, -6.69709932E-05,
                       2.37972496E-08, -8.43279765E-13,  3.61131008E+04,
                       3.54221257E+01]),
                NASA([1000.00, 6000.00],
                     [ 1.63582907E+01,  2.11974105E-02, -7.65817215E-06,
                       1.24134505E-09, -7.45327960E-14,  3.10375340E+04,
                      -6.22520227E+01])),
        note=u'C6H5CCHT12/06')

species(name=u'C2H',
        atoms='H:1 C:2',
        thermo=(NASA([200.00, 1000.00],
                     [ 2.88965733E+00,  1.34099611E-02, -2.84769501E-05,
                       2.94791045E-08, -1.09331511E-11,  6.68393932E+04,
                       6.22296438E+00]),
                NASA([1000.00, 3500.00],
                     [ 3.16780652E+00,  4.75221902E-03, -1.83787077E-06,
                       3.04190252E-10, -1.77232770E-14,  6.71210650E+04,
                       6.63589475E+00])),
        note=u'L1/91')

species(name=u'C6H5',
        atoms='H:5 C:6',
        thermo=(NASA([200.00, 1000.00],
                     [ 4.91024498E-01,  1.72669813E-02,  7.02556406E-05,
                      -1.13389805E-07,  4.89202543E-11,  3.92340510E+04,
                       2.42505364E+01]),
                NASA([1000.00, 6000.00],
                     [ 1.09540673E+01,  1.82072569E-02, -6.63331157E-06,
                       1.08125690E-09, -6.51736617E-14,  3.51098413E+04,
                      -3.64320659E+01])),
        note=u'phenylradiT07/10')

species(name=u'C4H2',
        atoms='H:2 C:4',
        thermo=(NASA([200.00, 1000.00],
                     [-5.84768273E-01,  5.33506727E-02, -9.50805952E-05,
                       8.37959674E-08, -2.80912179E-11,  5.36111160E+04,
                       2.09878997E+01]),
                NASA([1000.00, 6000.00],
                     [ 8.68978130E+00,  6.69732229E-03, -2.34774865E-06,
                       3.72759231E-10, -2.20554548E-14,  5.19942624E+04,
                      -2.20010465E+01])),
        note=u'ATcT')

species(name=u'N2',
        atoms='N:2',
        thermo=(NASA([300.00, 1000.00],
                     [ 3.29867700E+00,  1.40824040E-03, -3.96322200E-06,
                       5.64151500E-09, -2.44485400E-12, -1.02089990E+03,
                       3.95037200E+00]),
                NASA([1000.00, 5000.00],
                     [ 2.92664000E+00,  1.48797680E-03, -5.68476000E-07,
                       1.00970380E-10, -6.75335100E-15, -9.22797700E+02,
                       5.98052800E+00])),
        note=u'121286')

#-------------------------------------------------------------------------------
# Reaction data
#-------------------------------------------------------------------------------
# elementary fwd only

# Reaction 1
three_body_reaction('2 O + M => O2 + M', [1.200000e+17, -1.0, 0.0])
# elementary both ways

# Reaction 2
reaction('O + H2 <=> H + OH', [3.870000e+04, 2.7, 6260.0])
# third body mix

# Reaction 3
three_body_reaction('O + H + M <=> OH + M', [5.000000e+17, -1.0, 0.0],
                    efficiencies='H2:2.0 H2O:6.0 AR:0.7')
# falloff single

# Reaction 4
falloff_reaction('H + O2 (+ AR) <=> HO2 (+ AR)',
                 kf=[2.800000e+18, -0.86, 0.0],
                 kf0=[2.300000e+18, -0.9, -1700.0],
                 falloff=Troe(A=0.7346, T3=94.0, T1=1756.0, T2=5182.0))
# falloff unity

# Reaction 5
falloff_reaction('H + H (+ M) <=> H2 (+ M)',
                 kf=[2.800000e+18, -0.86, 0.0],
                 kf0=[2.300000e+18, -0.9, -1700.0],
                 falloff=Troe(A=0.7346, T3=94.0, T1=1756.0, T2=5182.0))
# troe

# Reaction 6
falloff_reaction('2 OH (+ M) <=> H2O2 (+ M)',
                 kf=[7.400000e+13, -0.37, 0.0],
                 kf0=[2.300000e+18, -0.9, -1700.0],
                 efficiencies='H2:2.0 H2O:6.0 AR:0.7',
                 falloff=Troe(A=0.7346, T3=94.0, T1=1756.0, T2=5182.0))
# sri

# Reaction 7
chemically_activated_reaction('CH3 + CH3 (+ M) <=> C2H5 + H (+ M)',
                              kLow=[4.989000e+12, 0.099, 10600.0],
                              kHigh=[3.802000e-07, 4.838, 7710.0],
                              falloff=SRI(A=1.641, B=4334.0, C=2725.0))
# plog

# Reaction 8
pdep_arrhenius('C2H5 + O2 <=> C2H5O2',
               [(0.04, 'atm'), 3.398000e+53, -13.9, 9279.0],
               [(1.0, 'atm'), 9.362000e+59, -15.28, 14240.0],
               [(10.0, 'atm'), 1.262000e+60, -14.91, 16240.0])
# lindeman

# Reaction 9
falloff_reaction('H + HCN (+ M) <=> H2CN (+ M)',
                 kf=[3.300000e+13, 0.0, 0.0],
                 kf0=[1.400000e+26, -3.4, 1900.0],
                 efficiencies='CO2:2.0 CO:1.5 H2:2.0 H2O:6.0 AR:0.7 CH4:2.0 C2H6:3.0')
# cheb

# Reaction 10
chebyshev_reaction('IC5H9OH1-1 + H (+ M) <=> IC4H9CHO + H (+ M)',
                   Tmin=290.0, Tmax=3000.0,
                   Pmin=(0.009869232667160128, 'atm'), Pmax=(98.69232667160128, 'atm'),
                   coeffs=[[ 1.16860e+01, -8.92550e-01, -1.89680e-01],
                           [ 1.02580e+00,  8.81110e-01,  1.13290e-01],
                           [-1.08270e-01,  1.54230e-01,  1.06370e-01],
                           [-1.14600e-01, -6.69200e-02,  1.36080e-02],
                           [-4.78840e-02, -6.48500e-02, -2.48350e-02]])
# explicit reversible

# Reaction 11
reaction('c2h3oh + hocho => ch3cho + hocho', [2.810000e-02, 3.286, -4509.0])

# Reaction 12
reaction('ch3cho + hocho => c2h3oh + hocho', [7.040000e+04, 1.209, 556.0])

# Reaction 13
pdep_arrhenius('ch2cho + O2 <=> ho2ch2co',
               [(0.01, 'atm'), 3.640000e+65, -21.87, 19020.0],
               [(0.1, 'atm'), 3.640000e+58, -19.0, 19090.0],
               [(1.0, 'atm'), 6.650000e+48, -15.55, 17460.0],
               [(10.0, 'atm'), 4.800000e+38, -12.14, 14960.0])

# Reaction 14
chebyshev_reaction('C8H6 + C2H (+ M) <=> C6H5 + C4H2 (+ M)',
                   Tmin=290.0, Tmax=3000.0,
                   Pmin=(0.009869232667160128, 'atm'), Pmax=(98.69232667160128, 'atm'),
                   coeffs=[[ 1.31090e+01, -1.93700e-01, -9.45730e-02],
                           [-6.41570e-01,  2.85160e-01,  1.37900e-01],
                           [-2.47410e-01, -9.16410e-02, -4.39480e-02],
                           [-2.84050e-02, -1.91500e-02, -5.25570e-03],
                           [ 2.42520e-02,  2.59210e-02,  6.70840e-03]])
# NetReaction from PDepNetwork #7 (C10H7)    deltaHrxn(T=298K) = -19.317280861892925 kcal/mol
# this should be last to test non-zero last efficiency (N2)

# Reaction 15
three_body_reaction('H + O2 + M <=> HO2 + M', [2.800000e+18, -0.86, 0.0],
                    efficiencies='CO2:1.5 CO:0.75 H2O:0.0 AR:0.0 C2H6:1.5 N2:3.0 O2:0.0')
